<?xml version="1.0" encoding="UTF-8"?>

<!-- generated on 09/21/18 09:28:38 by Eclipse SUMO netedit Version v0_32_0+1548-e77c7f77e4
<configuration xmlns:xsi="http://www.w3.org/2001/XMLSchema-instance" xsi:noNamespaceSchemaLocation="http://sumo.dlr.de/xsd/netconvertConfiguration.xsd">

    <input>
        <sumo-net-file value="example.net.xml"/>
    </input>

    <output>
        <output-file value="example.net.xml"/>
    </output>

    <processing>
        <no-turnarounds value="true"/>
        <offset.disable-normalization value="true"/>
        <lefthand value="false"/>
        <junctions.corner-detail value="0"/>
        <rectangular-lane-cut value="false"/>
        <walkingareas value="false"/>
    </processing>

    <visualisation>
        <registry-viewport value="true"/>
    </visualisation>

</configuration>
-->

<net version="0.27" xmlns:xsi="http://www.w3.org/2001/XMLSchema-instance" xsi:noNamespaceSchemaLocation="http://sumo.dlr.de/xsd/net_file.xsd">

    <location netOffset="0.00,0.00" convBoundary="-1000.00,-200.00,1000.00,200.00" origBoundary="-10000000000.00,-10000000000.00,10000000000.00,10000000000.00" projParameter="!"/>

    <edge id=":gneJ1_0" function="internal">
        <lane id=":gneJ1_0_0" index="0" speed="13.89" length="5.00" shape="-4.80,7.90 -4.99,6.54 -5.58,5.58 -6.54,4.99 -7.90,4.80"/>
    </edge>
    <edge id=":gneJ1_1" function="internal">
        <lane id=":gneJ1_1_0" index="0" speed="13.89" length="15.80" shape="-4.80,7.90 -4.80,-7.90"/>
        <lane id=":gneJ1_1_1" index="1" speed="13.89" length="15.80" shape="-1.60,7.90 -1.60,-7.90"/>
    </edge>
    <edge id=":gneJ1_3" function="internal">
        <lane id=":gneJ1_3_0" index="0" speed="13.89" length="6.15" shape="-1.60,7.90 -1.01,3.74 0.00,2.07"/>
    </edge>
    <edge id=":gneJ1_16" function="internal">
        <lane id=":gneJ1_16_0" index="0" speed="13.89" length="9.17" shape="0.00,2.07 0.78,0.78 3.74,-1.01 7.90,-1.60"/>
    </edge>
    <edge id=":gneJ1_4" function="internal">
        <lane id=":gneJ1_4_0" index="0" speed="13.89" length="5.00" shape="7.90,4.80 6.54,4.99 5.58,5.58 4.99,6.54 4.80,7.90"/>
    </edge>
    <edge id=":gneJ1_5" function="internal">
        <lane id=":gneJ1_5_0" index="0" speed="13.89" length="15.80" shape="7.90,4.80 -7.90,4.80"/>
        <lane id=":gneJ1_5_1" index="1" speed="13.89" length="15.80" shape="7.90,1.60 -7.90,1.60"/>
    </edge>
    <edge id=":gneJ1_7" function="internal">
        <lane id=":gneJ1_7_0" index="0" speed="13.89" length="6.15" shape="7.90,1.60 3.74,1.01 2.07,-0.00"/>
    </edge>
    <edge id=":gneJ1_17" function="internal">
        <lane id=":gneJ1_17_0" index="0" speed="13.89" length="9.17" shape="2.07,-0.00 0.78,-0.78 -1.01,-3.74 -1.60,-7.90"/>
    </edge>
    <edge id=":gneJ1_8" function="internal">
        <lane id=":gneJ1_8_0" index="0" speed="13.89" length="5.00" shape="4.80,-7.90 4.99,-6.54 5.58,-5.58 6.54,-4.99 7.90,-4.80"/>
    </edge>
    <edge id=":gneJ1_9" function="internal">
        <lane id=":gneJ1_9_0" index="0" speed="13.89" length="15.80" shape="4.80,-7.90 4.80,7.90"/>
        <lane id=":gneJ1_9_1" index="1" speed="13.89" length="15.80" shape="1.60,-7.90 1.60,7.90"/>
    </edge>
    <edge id=":gneJ1_11" function="internal">
        <lane id=":gneJ1_11_0" index="0" speed="13.89" length="6.15" shape="1.60,-7.90 1.01,-3.74 -0.00,-2.07"/>
    </edge>
    <edge id=":gneJ1_18" function="internal">
        <lane id=":gneJ1_18_0" index="0" speed="13.89" length="9.17" shape="-0.00,-2.07 -0.78,-0.78 -3.74,1.01 -7.90,1.60"/>
    </edge>
    <edge id=":gneJ1_12" function="internal">
        <lane id=":gneJ1_12_0" index="0" speed="13.89" length="5.00" shape="-7.90,-4.80 -6.54,-4.99 -5.58,-5.58 -4.99,-6.54 -4.80,-7.90"/>
    </edge>
    <edge id=":gneJ1_13" function="internal">
        <lane id=":gneJ1_13_0" index="0" speed="13.89" length="15.80" shape="-7.90,-4.80 7.90,-4.80"/>
        <lane id=":gneJ1_13_1" index="1" speed="13.89" length="15.80" shape="-7.90,-1.60 7.90,-1.60"/>
    </edge>
    <edge id=":gneJ1_15" function="internal">
        <lane id=":gneJ1_15_0" index="0" speed="13.89" length="6.15" shape="-7.90,-1.60 -3.74,-1.01 -2.07,0.00"/>
    </edge>
    <edge id=":gneJ1_19" function="internal">
        <lane id=":gneJ1_19_0" index="0" speed="13.89" length="9.17" shape="-2.07,0.00 -0.78,0.78 1.01,3.74 1.60,7.90"/>
    </edge>

    <edge id="gneE0" from="gneJ0" to="gneJ1" priority="1">
        <lane id="gneE0_0" index="0" speed="13.89" length="992.10" shape="-1000.00,-4.80 -7.90,-4.80"/>
        <lane id="gneE0_1" index="1" speed="13.89" length="992.10" shape="-1000.00,-1.60 -7.90,-1.60"/>
    </edge>
    <edge id="gneE1" from="gneJ1" to="gneJ2" priority="1">
        <lane id="gneE1_0" index="0" speed="13.89" length="992.10" shape="7.90,-4.80 1000.00,-4.80"/>
        <lane id="gneE1_1" index="1" speed="13.89" length="992.10" shape="7.90,-1.60 1000.00,-1.60"/>
    </edge>
    <edge id="gneE2" from="gneJ1" to="gneJ3" priority="1" length="180.00">
        <lane id="gneE2_0" index="0" speed="13.89" length="180.00" shape="4.80,7.90 4.80,200.00"/>
        <lane id="gneE2_1" index="1" speed="13.89" length="180.00" shape="1.60,7.90 1.60,200.00"/>
    </edge>
    <edge id="gneE3" from="gneJ1" to="gneJ4" priority="1" length="252.00">
        <lane id="gneE3_0" index="0" speed="13.89" length="252.00" shape="-4.80,-7.90 -4.80,-200.00"/>
        <lane id="gneE3_1" index="1" speed="13.89" length="252.00" shape="-1.60,-7.90 -1.60,-200.00"/>
    </edge>
    <edge id="gneE5" from="gneJ1" to="gneJ0" priority="1">
        <lane id="gneE5_0" index="0" speed="13.89" length="992.10" shape="-7.90,4.80 -1000.00,4.80"/>
        <lane id="gneE5_1" index="1" speed="13.89" length="992.10" shape="-7.90,1.60 -1000.00,1.60"/>
    </edge>
    <edge id="gneE6" from="gneJ3" to="gneJ1" priority="1" length="253.00">
        <lane id="gneE6_0" index="0" speed="13.89" length="253.00" shape="-4.80,200.00 -4.80,7.90"/>
        <lane id="gneE6_1" index="1" speed="13.89" length="253.00" shape="-1.60,200.00 -1.60,7.90"/>
    </edge>
    <edge id="gneE7" from="gneJ2" to="gneJ1" priority="1">
        <lane id="gneE7_0" index="0" speed="13.89" length="992.10" shape="1000.00,4.80 7.90,4.80"/>
        <lane id="gneE7_1" index="1" speed="13.89" length="992.10" shape="1000.00,1.60 7.90,1.60"/>
    </edge>
    <edge id="gneE8" from="gneJ4" to="gneJ1" priority="1" length="252.00">
        <lane id="gneE8_0" index="0" speed="13.89" length="252.00" shape="4.80,-200.00 4.80,-7.90"/>
        <lane id="gneE8_1" index="1" speed="13.89" length="252.00" shape="1.60,-200.00 1.60,-7.90"/>
    </edge>

    <tlLogic id="gneJ1" type="static" programID="0" offset="0">
        <phase duration="31" state="rrrrGGGgrrrrGGGg"/>
        <phase duration="4"  state="rrrryyygrrrryyyg"/>
        <phase duration="6"  state="rrrrrrrGrrrrrrrG"/>
        <phase duration="4"  state="rrrrrrryrrrrrrry"/>
        <phase duration="31" state="GGGgrrrrGGGgrrrr"/>
        <phase duration="4"  state="yyygrrrryyygrrrr"/>
        <phase duration="6"  state="rrrGrrrrrrrGrrrr"/>
        <phase duration="4"  state="rrryrrrrrrryrrrr"/>
    </tlLogic>

    <junction id="gneJ0" type="dead_end" x="-1000.00" y="0.00" incLanes="gneE5_0 gneE5_1" intLanes="" shape="-1000.00,0.00 -1000.00,6.40 -1000.00,0.00"/>
    <junction id="gneJ1" type="traffic_light" x="0.00" y="0.00" incLanes="gneE6_0 gneE6_1 gneE7_0 gneE7_1 gneE8_0 gneE8_1 gneE0_0 gneE0_1" intLanes=":gneJ1_0_0 :gneJ1_1_0 :gneJ1_1_1 :gneJ1_16_0 :gneJ1_4_0 :gneJ1_5_0 :gneJ1_5_1 :gneJ1_17_0 :gneJ1_8_0 :gneJ1_9_0 :gneJ1_9_1 :gneJ1_18_0 :gneJ1_12_0 :gneJ1_13_0 :gneJ1_13_1 :gneJ1_19_0" shape="-6.40,7.90 6.40,7.90 7.90,6.40 7.90,-6.40 6.40,-7.90 -6.40,-7.90 -7.90,-6.40 -7.90,6.40">
        <request index="0"  response="0000000000000000" foes="0000100001100000" cont="0"/>
        <request index="1"  response="1000000010000000" foes="1111100011100000" cont="0"/>
        <request index="2"  response="1000000010000000" foes="1111100011100000" cont="0"/>
        <request index="3"  response="1000011110000000" foes="1110011111100000" cont="1"/>
        <request index="4"  response="0000011000000000" foes="1000011000000000" cont="0"/>
        <request index="5"  response="0000111000001111" foes="1000111000001111" cont="0"/>
        <request index="6"  response="0000111000001111" foes="1000111000001111" cont="0"/>
        <request index="7"  response="0111111000001110" foes="0111111000001110" cont="1"/>
        <request index="8"  response="0000000000000000" foes="0110000000001000" cont="0"/>
        <request index="9"  response="1000000010000000" foes="1110000011111000" cont="0"/>
        <request index="10" response="1000000010000000" foes="1110000011111000" cont="0"/>
        <request index="11" response="1000000010000111" foes="1110000011100111" cont="1"/>
        <request index="12" response="0000000000000110" foes="0000000010000110" cont="0"/>
        <request index="13" response="0000111100001110" foes="0000111110001110" cont="0"/>
        <request index="14" response="0000111100001110" foes="0000111110001110" cont="0"/>
        <request index="15" response="0000111001111110" foes="0000111001111110" cont="1"/>
    </junction>
    <junction id="gneJ2" type="dead_end" x="1000.00" y="0.00" incLanes="gneE1_0 gneE1_1" intLanes="" shape="1000.00,0.00 1000.00,-6.40 1000.00,0.00"/>
    <junction id="gneJ3" type="dead_end" x="0.00" y="200.00" incLanes="gneE2_0 gneE2_1" intLanes="" shape="0.00,200.00 6.40,200.00 0.00,200.00"/>
    <junction id="gneJ4" type="dead_end" x="0.00" y="-200.00" incLanes="gneE3_0 gneE3_1" intLanes="" shape="0.00,-200.00 -6.40,-200.00 0.00,-200.00"/>

    <junction id=":gneJ1_16_0" type="internal" x="0.00" y="2.07" incLanes=":gneJ1_3_0 gneE8_0 gneE8_1" intLanes=":gneJ1_5_0 :gneJ1_5_1 :gneJ1_7_0 :gneJ1_8_0 :gneJ1_9_0 :gneJ1_9_1 :gneJ1_13_0 :gneJ1_13_1 :gneJ1_15_0"/>
    <junction id=":gneJ1_17_0" type="internal" x="2.07" y="-0.00" incLanes=":gneJ1_7_0 gneE0_0 gneE0_1" intLanes=":gneJ1_1_0 :gneJ1_1_1 :gneJ1_3_0 :gneJ1_9_0 :gneJ1_9_1 :gneJ1_11_0 :gneJ1_12_0 :gneJ1_13_0 :gneJ1_13_1"/>
    <junction id=":gneJ1_18_0" type="internal" x="-0.00" y="-2.07" incLanes=":gneJ1_11_0 gneE6_0 gneE6_1" intLanes=":gneJ1_0_0 :gneJ1_1_0 :gneJ1_1_1 :gneJ1_5_0 :gneJ1_5_1 :gneJ1_7_0 :gneJ1_13_0 :gneJ1_13_1 :gneJ1_15_0"/>
    <junction id=":gneJ1_19_0" type="internal" x="-2.07" y="0.00" incLanes=":gneJ1_15_0 gneE7_0 gneE7_1" intLanes=":gneJ1_1_0 :gneJ1_1_1 :gneJ1_3_0 :gneJ1_4_0 :gneJ1_5_0 :gneJ1_5_1 :gneJ1_9_0 :gneJ1_9_1 :gneJ1_11_0"/>

    <connection from="gneE0" to="gneE3" fromLane="0" toLane="0" via=":gneJ1_12_0" tl="gneJ1" linkIndex="12" dir="r" state="o"/>
    <connection from="gneE0" to="gneE1" fromLane="0" toLane="0" via=":gneJ1_13_0" tl="gneJ1" linkIndex="13" dir="s" state="o"/>
    <connection from="gneE0" to="gneE1" fromLane="1" toLane="1" via=":gneJ1_13_1" tl="gneJ1" linkIndex="14" dir="s" state="o"/>
    <connection from="gneE0" to="gneE2" fromLane="1" toLane="1" via=":gneJ1_15_0" tl="gneJ1" linkIndex="15" dir="l" state="o"/>
    <connection from="gneE6" to="gneE5" fromLane="0" toLane="0" via=":gneJ1_0_0" tl="gneJ1" linkIndex="0" dir="r" state="O"/>
    <connection from="gneE6" to="gneE3" fromLane="0" toLane="0" via=":gneJ1_1_0" tl="gneJ1" linkIndex="1" dir="s" state="O"/>
    <connection from="gneE6" to="gneE3" fromLane="1" toLane="1" via=":gneJ1_1_1" tl="gneJ1" linkIndex="2" dir="s" state="O"/>
    <connection from="gneE6" to="gneE1" fromLane="1" toLane="1" via=":gneJ1_3_0" tl="gneJ1" linkIndex="3" dir="l" state="o"/>
    <connection from="gneE7" to="gneE2" fromLane="0" toLane="0" via=":gneJ1_4_0" tl="gneJ1" linkIndex="4" dir="r" state="o"/>
    <connection from="gneE7" to="gneE5" fromLane="0" toLane="0" via=":gneJ1_5_0" tl="gneJ1" linkIndex="5" dir="s" state="o"/>
    <connection from="gneE7" to="gneE5" fromLane="1" toLane="1" via=":gneJ1_5_1" tl="gneJ1" linkIndex="6" dir="s" state="o"/>
    <connection from="gneE7" to="gneE3" fromLane="1" toLane="1" via=":gneJ1_7_0" tl="gneJ1" linkIndex="7" dir="l" state="o"/>
    <connection from="gneE8" to="gneE1" fromLane="0" toLane="0" via=":gneJ1_8_0" tl="gneJ1" linkIndex="8" dir="r" state="O"/>
    <connection from="gneE8" to="gneE2" fromLane="0" toLane="0" via=":gneJ1_9_0" tl="gneJ1" linkIndex="9" dir="s" state="O"/>
    <connection from="gneE8" to="gneE2" fromLane="1" toLane="1" via=":gneJ1_9_1" tl="gneJ1" linkIndex="10" dir="s" state="O"/>
    <connection from="gneE8" to="gneE5" fromLane="1" toLane="1" via=":gneJ1_11_0" tl="gneJ1" linkIndex="11" dir="l" state="o"/>

    <connection from=":gneJ1_0" to="gneE5" fromLane="0" toLane="0" dir="r" state="M"/>
    <connection from=":gneJ1_1" to="gneE3" fromLane="0" toLane="0" dir="s" state="M"/>
    <connection from=":gneJ1_1" to="gneE3" fromLane="1" toLane="1" dir="s" state="M"/>
    <connection from=":gneJ1_3" to="gneE1" fromLane="0" toLane="1" via=":gneJ1_16_0" dir="l" state="m"/>
    <connection from=":gneJ1_16" to="gneE1" fromLane="0" toLane="1" dir="l" state="M"/>
    <connection from=":gneJ1_4" to="gneE2" fromLane="0" toLane="0" dir="r" state="M"/>
    <connection from=":gneJ1_5" to="gneE5" fromLane="0" toLane="0" dir="s" state="M"/>
    <connection from=":gneJ1_5" to="gneE5" fromLane="1" toLane="1" dir="s" state="M"/>
    <connection from=":gneJ1_7" to="gneE3" fromLane="0" toLane="1" via=":gneJ1_17_0" dir="l" state="m"/>
    <connection from=":gneJ1_17" to="gneE3" fromLane="0" toLane="1" dir="l" state="M"/>
    <connection from=":gneJ1_8" to="gneE1" fromLane="0" toLane="0" dir="r" state="M"/>
    <connection from=":gneJ1_9" to="gneE2" fromLane="0" toLane="0" dir="s" state="M"/>
    <connection from=":gneJ1_9" to="gneE2" fromLane="1" toLane="1" dir="s" state="M"/>
    <connection from=":gneJ1_11" to="gneE5" fromLane="0" toLane="1" via=":gneJ1_18_0" dir="l" state="m"/>
    <connection from=":gneJ1_18" to="gneE5" fromLane="0" toLane="1" dir="l" state="M"/>
    <connection from=":gneJ1_12" to="gneE3" fromLane="0" toLane="0" dir="r" state="M"/>
    <connection from=":gneJ1_13" to="gneE1" fromLane="0" toLane="0" dir="s" state="M"/>
    <connection from=":gneJ1_13" to="gneE1" fromLane="1" toLane="1" dir="s" state="M"/>
    <connection from=":gneJ1_15" to="gneE2" fromLane="0" toLane="1" via=":gneJ1_19_0" dir="l" state="m"/>
    <connection from=":gneJ1_19" to="gneE2" fromLane="0" toLane="1" dir="l" state="M"/>

</net>
